  242
CHA
Si      4.013178     8.454981     8.445809
Si      8.935512     0.559716     8.445810
Si     13.857844    16.350246     8.445809
Si      4.013178    22.986216    10.639279
Si      8.935512     3.248053     3.801779
Si     13.857844    19.038584     3.801780
Si      4.013178     1.978102     1.614464
Si      8.935512     5.925734     8.451963
Si     13.857844    21.716262     8.451963
Si      0.909155    13.824551     8.445810
Si     10.753822    21.719816     8.445810
Si      5.831488     5.929285     8.445809
Si      0.909155    22.979111    10.639279
Si     10.753822    19.031478     3.801779
Si      5.831488     3.240949     3.801779
Si      0.909155    20.301431     1.614463
Si     10.753822    16.353798     8.451963
Si      5.831488     0.563270     8.451963
Si      0.909155    13.824552     5.353891
Si     10.753822    21.719817     5.353891
Si      5.831488     5.929286     5.353892
Si      0.909155    22.979110     3.160422
Si     10.753822    19.031479     9.997922
Si      5.831488     3.240949     9.997921
Si      0.909155    20.301432    12.185238
Si     10.753822    16.353799     5.347738
Si      5.831488     0.563269     5.347738
Si      4.013178     8.454981     5.353892
Si      8.935512     0.559717     5.353891
Si     13.857844    16.350247     5.353892
Si      4.013178    22.986217     3.160423
Si      8.935512     3.248054     9.997922
Si     13.857844    19.038585     9.997921
Si      4.013178     1.978100    12.185238
Si      8.935512     5.925734     5.347738
Si     13.857844    21.716263     5.347738
Si      4.013178    20.297879     1.608309
Si      8.935512    12.402613     1.608310
Si     13.857844     4.507349     1.608309
Si      4.013178    11.143319     3.801779
Si      8.935512    15.090951    10.639279
Si     13.857844     7.195687    10.639280
Si      4.013178    13.820999     8.451964
Si      8.935512    17.768631     1.614463
Si     13.857844     9.873365     1.614463
Si      0.909155     1.981653     1.608310
Si     10.753822     9.876919     1.608310
Si      5.831488    17.772183     1.608309
Si      0.909155    11.136214     3.801779
Si     10.753822     7.188581    10.639279
Si      5.831488    15.083846    10.639279
Si      0.909155     8.458534     8.451963
Si     10.753822     4.510901     1.614463
Si      5.831488    12.406167     1.614463
Si      0.909155     1.981655    12.191391
Si     10.753822     9.876919    12.191391
Si      5.831488    17.772184    12.191392
Si      0.909155    11.136213     9.997922
Si     10.753822     7.188582     3.160422
Si      5.831488    15.083846     3.160421
Si      0.909155     8.458534     5.347738
Si     10.753822     4.510901    12.185238
Si      5.831488    12.406167    12.185238
Si      4.013178    20.297878    12.191392
Si      8.935512    12.402614    12.191391
Si     13.857844     4.507350    12.191392
Si      4.013178    11.143320     9.997923
Si      8.935512    15.090952     3.160422
Si     13.857844     7.195687     3.160421
Si      4.013178    13.820998     5.347738
Si      8.935512    17.768631    12.185238
Si     13.857844     9.873365    12.185238
 O      4.273077     8.818557     6.899851
 O      9.195410     0.923294     6.899850
 O     14.117744    16.713823     6.899850
 O      4.273077     0.457473    11.727125
 O      9.195410     4.405105     4.889626
 O     14.117744    20.195635     4.889625
 O      4.273077     0.457473     2.072576
 O      9.195410     4.405105     8.910076
 O     14.117744    20.195635     8.910075
 O      0.649256    13.460975     6.899850
 O     10.493924    21.356238     6.899851
 O      5.571588     5.565709     6.899851
 O      0.649256    21.822060    11.727125
 O     10.493924    17.874428     4.889626
 O      5.571588     2.083897     4.889625
 O      0.649256    21.822060     2.072576
 O     10.493924    17.874427     8.910075
 O      5.571588     2.083898     8.910076
 O      4.922825     7.191345     8.860845
 O      9.845159    22.981875     8.860846
 O      0.000491    15.086609     8.860846
 O      4.922825    23.258604     9.337419
 O      9.844666     3.520045     2.500604
 O      0.000491    19.310971     2.499920
 O      4.922825     2.969351     2.501287
 O      9.844666    18.759487     2.500603
 O      0.000491    22.707514     9.338787
 O     14.766507    15.088188     4.938855
 O      9.844173    22.983453     4.938856
 O      4.921841     7.192923     4.938857
 O     14.766507    22.706723     4.462282
 O      9.844666     6.916588     4.461599
 O      4.921841     2.968562    11.299783
 O     14.766507    19.310180    11.298414
 O      9.844666    15.362944     4.461598
 O      4.921841    23.257815     4.460915
 O      4.403027    21.559149     2.529320
 O      9.325360     1.820985     9.366820
 O     14.247695    17.611514     9.366821
 O      4.403027    21.557963    11.271064
 O      9.325360     1.819801     4.433564
 O     14.247695    17.610329     4.433564
 O      4.403027    13.987984     6.899167
 O      9.325360     6.092718     6.899167
 O     14.247695    21.883249     6.899168
 O      0.519305     0.720384     2.529321
 O     10.363973    20.458547     9.366820
 O      5.441639     4.668019     9.366821
 O      0.519305     0.721569    11.271064
 O     10.363973    20.459732     4.433564
 O      5.441639     4.669203     4.433564
 O      0.519305     8.291549     6.899167
 O     10.363973    16.186815     6.899167
 O      5.441639     0.396284     6.899167
 O      7.383500     0.192588     8.661875
 O     12.305833    15.983117     8.661874
 O      7.383500     3.244501     3.375803
 O     12.305833    19.035030     3.375803
 O      7.383500     6.296416     8.661874
 O     12.305833    22.086945     8.661875
 O     12.305833    22.086947     5.137827
 O      7.383500     6.296418     5.137827
 O     12.305833    19.035031    10.423898
 O      7.383500     3.244501    10.423898
 O     12.305833    15.983115     5.137827
 O      7.383500     0.192586     5.137827
 O      4.273077    20.661455     0.062351
 O      9.195410    12.766192     0.062350
 O     14.117744     4.870926     0.062350
 O      4.273077    12.300370     4.889625
 O      9.195410    16.248002    11.727126
 O     14.117744     8.352738    11.727125
 O      4.273077    12.300370     8.910076
 O      9.195410    16.248003     2.072576
 O     14.117744     8.352738     2.072575
 O      0.649256     1.618078     0.062350
 O     10.493924     9.513341     0.062351
 O      5.571588    17.408607     0.062351
 O      0.649256     9.979162     4.889625
 O     10.493924     6.031530    11.727126
 O      5.571588    13.926795    11.727125
 O      0.649256     9.979162     8.910076
 O     10.493924     6.031530     2.072575
 O      5.571588    13.926795     2.072576
 O      4.922825    19.034243     2.023345
 O      9.845159    11.138977     2.023346
 O      0.000491     3.243711     2.023346
 O      4.922825    11.415707     2.499919
 O      9.844666    15.362943     9.338104
 O      0.000491     7.468074     9.337420
 O      4.922825    14.812249     9.338787
 O      9.844666     6.916590     9.338103
 O      0.000491    10.864617     2.501287
 O     14.766507     3.245290    11.776355
 O      9.844173    11.140556    11.776356
 O      4.921841    19.035820    11.776357
 O     14.766507    10.863826    11.299782
 O      9.844666    18.759486    11.299099
 O      4.921841    14.811459     4.462283
 O     14.766507     7.467283     4.460914
 O      9.844666     3.520047    11.299098
 O      4.921841    11.414918    11.298415
 O      4.403027     9.716251     9.366820
 O      9.325360    13.663883     2.529320
 O     14.247695     5.768617     2.529321
 O      4.403027     9.715065     4.433564
 O      9.325360    13.662698    11.271064
 O     14.247695     5.767432    11.271064
 O      4.403027     2.145086     0.061667
 O      9.325360    17.935616     0.061667
 O     14.247695    10.040351     0.061668
 O      0.519305    12.563282     9.366821
 O     10.363973     8.615650     2.529320
 O      5.441639    16.510916     2.529321
 O      0.519305    12.564467     4.433564
 O     10.363973     8.616834    11.271064
 O      5.441639    16.512100    11.271064
 O      0.519305    20.134446     0.061667
 O     10.363973     4.343917     0.061667
 O      5.441639    12.239181     0.061667
 O      7.383500    12.035485     1.824375
 O     12.305833     4.140220     1.824374
 O      7.383500    15.087399    10.213303
 O     12.305833     7.192133    10.213303
 O      7.383500    18.139314     1.824374
 O     12.305833    10.244048     1.824375
 O     12.305833    10.244049    11.975327
 O      7.383500    18.139315    11.975327
 O     12.305833     7.192134     3.586398
 O      7.383500    15.087399     3.586398
 O     12.305833     4.140218    11.975327
 O      7.383500    12.035484    11.975327
 O      2.461166     8.087852     8.661874
 O      2.461166    22.982663    10.213304
 O      2.461166    14.191681     8.661874
 O      2.461166     2.348783    11.975327
 O      2.461166    22.982663     3.586398
 O      2.461166    19.930749    11.975327
 O      2.461166    19.930749     1.824374
 O      2.461166    11.139766     3.375804
 O      2.461166     2.348783     1.824374
 O      2.461166    14.191680     5.137827
 O      2.461166    11.139766    10.423898
 O      2.461166     8.087852     5.137827
 C      9.127803    12.690167     6.686729
 C     10.547473    12.161012     6.820115
 C     10.757794    10.905924     5.985073
 C      8.866613    13.841258     7.643222
 C      9.903556     9.738285     6.459781
 C      7.455888    14.395328     7.512408
 C     10.485114     9.043964     7.670216
 C      7.273381    15.238865     6.270130
 H      8.413311    11.855270     6.874068
 H      8.939515    13.011036     5.641985
 H     10.773278    11.947420     7.885013
 H     11.271637    12.940764     6.512370
 H     11.828696    10.622884     6.001395
 H     10.522347    11.128054     4.925218
 H      9.607684    14.648072     7.473663
 H      9.032172    13.499092     8.684645
 H      9.783204     9.007243     5.636957
 H      8.879020    10.112720     6.687222
 H      7.219624    15.004886     8.406943
 H      6.722697    13.564300     7.516874
 H      9.845050     8.215299     7.998869
 H     11.479372     8.627677     7.459997
 H     10.593527     9.730839     8.520695
 H      7.462475    14.662138     5.354225
 H      6.251022    15.632584     6.203382
 H      7.957588    16.097795     6.260087
