   68
tmp/SOD-48.xyz	0.0000
 O      1.315166     4.482500     7.649834
 O      5.797666     0.000000     3.167334
 O      5.797666     0.008900     3.167334
 O      7.649834     4.482500     7.649834
 O      3.167334     0.000000     3.167334
 O      3.167334     0.008900     3.167334
 O      7.649834     4.482500     1.315166
 O      3.167334     0.000000     5.797666
 O      3.167334     0.008900     5.797666
 O      1.315166     4.482500     1.315166
 O      5.797666     0.000000     5.797666
 O      5.797666     0.008900     5.797666
 O      7.649834     1.315166     4.482500
 O      3.167334     5.797666     0.000000
 O      3.167334     5.797666     0.008900
 O      7.649834     7.649834     4.482500
 O      3.167334     3.167334     0.000000
 O      3.167334     3.167334     0.008900
 O      1.315166     7.649834     4.482500
 O      5.797666     3.167334     0.000000
 O      5.797666     3.167334     0.008900
 O      1.315166     1.315166     4.482500
 O      5.797666     5.797666     0.000000
 O      5.797666     5.797666     0.008900
 O      4.482500     7.649834     1.315166
 O      0.000000     3.167334     5.797666
 O      0.008900     3.167334     5.797666
 O      4.482500     7.649834     7.649834
 O      0.000000     3.167334     3.167334
 O      0.008900     3.167334     3.167334
 O      4.482500     1.315166     7.649834
 O      0.000000     5.797666     3.167334
 O      0.008900     5.797666     3.167334
 O      4.482500     1.315166     1.315166
 O      0.000000     5.797666     5.797666
 O      0.008900     5.797666     5.797666
Si      2.241250     4.482500     0.000000
Si      2.241250     4.482500     0.008900
Si      6.723750     0.000000     4.482500
Si      6.723750     0.008900     4.482500
Si      6.723750     4.482500     0.000000
Si      6.723750     4.482500     0.008900
Si      2.241250     0.000000     4.482500
Si      2.241250     0.008900     4.482500
Si      0.000000     2.241250     4.482500
Si      0.008900     2.241250     4.482500
Si      4.482500     6.723750     0.000000
Si      4.482500     6.723750     0.008900
Si      0.000000     6.723750     4.482500
Si      0.008900     6.723750     4.482500
Si      4.482500     2.241250     0.000000
Si      4.482500     2.241250     0.008900
Si      4.482500     0.000000     2.241250
Si      4.482500     0.008900     2.241250
Si      0.000000     4.482500     6.723750
Si      0.008900     4.482500     6.723750
Si      4.482500     0.000000     6.723750
Si      4.482500     0.008900     6.723750
Si      0.000000     4.482500     2.241250
Si      0.008900     4.482500     2.241250
 C      4.794104     4.634151     3.570706
 C      4.794104     4.634151     5.020706
 H      5.820823     4.634151     3.207706
 H      4.280744     3.744986     3.207706
 H      4.280744     5.523316     3.207706
 H      3.767385     4.634151     5.383706
 H      5.307464     3.744986     5.383706
 H      5.307464     5.523316     5.383706
