    41


               N    -0.0005195512     0.0001502089     0.0011998747
               C    -0.0369952938    -0.0002045563     1.5497503707
               C     1.3251283336    -0.0005013000     2.2577408801
               C     1.0953941646    -0.0004246743     3.7903057891
               C    -1.4726245528     0.0003928837    -0.4804009892
               C    -1.6862532099    -0.0003475452    -2.0009060072
               C    -3.2079270082    -0.0000835903    -2.2940560784
               C     0.7567603299     1.2429691605    -0.5328866337
               C     0.1823064148     2.6083554466    -0.1256928991
               C     1.0575465826     3.7264497436    -0.7460180756
               C     0.7553592871    -1.2423965556    -0.5354913516
               C     0.1794414664    -2.6078401986    -0.1306787824
               C     1.0530350463    -3.7260927666    -0.7527280050
               H    -3.3785307149    -0.0007306557    -3.3741577846
               H    -3.6890123007    -0.8894753765    -1.8729623995
               H    -3.6879821084     0.8895267481    -1.8731461496
               H    -1.2362270844     0.8873307375    -2.4563213737
               H    -1.2346004988    -0.8874941051    -2.4560212713
               H    -1.9294078096     0.8857969967    -0.0346144314
               H    -1.9296518919    -0.8852083536    -0.0338870590
               H    -0.6098070011     0.8859573493     1.8311164934
               H    -0.6104034892    -0.8853143492     1.8311250997
               H     1.9036759872    -0.8887149794     1.9854112265
               H     1.9056290378     0.8860308737     1.9835626794
               H     2.0570584060     0.0003815502     4.3105276826
               H     0.5385950040     0.8888852697     4.1041847472
               H     0.5389532669    -0.8897761867     4.1036342620
               H     0.6623488090     4.7066245044    -0.4656325238
               H     2.0903866335     3.6610369034    -0.3872474864
               H     1.0623422056     3.6595798226    -1.8389362744
               H     0.1793512405     2.7191731032     0.9637128462
               H    -0.8454799150     2.7201721098    -0.4857943096
               H     0.7597077804     1.1433199818    -1.6197985617
               H     1.7824393203     1.1420442025    -0.1735230267
               H     0.7585200061    -1.1405485017    -1.6221922598
               H     1.7811576374    -1.1434697459    -0.1759456605
               H     0.1783899518    -2.7215568015     0.9581253679
               H    -0.8494412685    -2.7168966549    -0.4890731417
               H     0.6556073131    -4.7061016994    -0.4754969370
               H     1.0586331591    -3.6580644285    -1.8458835602
               H     2.0852221708    -3.6629324943    -0.3935511793
